Version 4
SHEET 1 1648 680
WIRE 256 -112 256 -128
WIRE 256 -112 -64 -112
WIRE 432 -112 256 -112
WIRE 480 -112 432 -112
WIRE 560 -112 480 -112
WIRE 592 -112 560 -112
WIRE 688 -112 592 -112
WIRE 720 -112 688 -112
WIRE 800 -112 720 -112
WIRE 832 -112 800 -112
WIRE 928 -112 832 -112
WIRE 992 -112 928 -112
WIRE -256 -96 -320 -96
WIRE -64 -96 -64 -112
WIRE -64 -96 -256 -96
WIRE 80 -96 -64 -96
WIRE 128 -96 80 -96
WIRE 480 -64 480 -112
WIRE 480 -64 432 -64
WIRE 592 -64 592 -112
WIRE 592 -64 560 -64
WIRE 720 -64 720 -112
WIRE 720 -64 688 -64
WIRE 832 -64 832 -112
WIRE 832 -64 800 -64
WIRE 992 -64 992 -112
WIRE 992 -64 928 -64
WIRE -320 -48 -320 -96
WIRE -256 -48 -320 -48
WIRE -160 -48 -208 -48
WIRE -80 -48 -160 -48
WIRE 32 -48 -80 -48
WIRE 128 -48 128 -96
WIRE 128 -48 80 -48
WIRE 560 -16 432 -16
WIRE 688 -16 560 -16
WIRE 736 -16 688 -16
WIRE 800 -16 736 -16
WIRE 928 -16 800 -16
WIRE -80 16 -80 -48
WIRE 384 16 384 -64
WIRE 384 16 -80 16
WIRE 512 16 512 -64
WIRE 512 16 384 16
WIRE 640 16 640 -64
WIRE 640 16 512 16
WIRE 752 16 752 -64
WIRE 752 16 640 16
WIRE 880 16 880 -64
WIRE 880 16 752 16
WIRE -256 64 -256 0
WIRE -160 64 -160 -48
WIRE -160 64 -256 64
WIRE 80 128 80 0
WIRE 80 128 32 128
WIRE 224 128 80 128
WIRE 128 176 32 176
WIRE 224 176 128 176
WIRE 1120 224 1072 224
WIRE 1328 224 1312 224
WIRE -256 240 -256 64
WIRE -256 240 -272 240
WIRE 736 272 736 -16
WIRE 1072 272 1072 224
WIRE 1072 272 736 272
WIRE 1168 288 1168 272
WIRE 1312 288 1312 224
WIRE 1312 288 1168 288
WIRE 1376 288 1376 272
WIRE 1568 288 1376 288
WIRE 736 336 736 272
WIRE 1072 336 1072 272
WIRE 1120 336 1072 336
WIRE 1312 336 1312 288
WIRE 1328 336 1312 336
WIRE 32 352 32 224
WIRE 32 352 0 352
WIRE 224 352 224 224
WIRE 224 352 192 352
WIRE 480 352 224 352
WIRE 0 384 0 352
WIRE 80 384 0 384
WIRE 192 384 192 352
WIRE 480 384 480 352
WIRE 688 384 480 384
WIRE 816 384 736 384
WIRE -272 400 -272 240
WIRE 0 432 -48 432
WIRE 80 432 80 384
WIRE 80 432 48 432
WIRE 144 432 80 432
WIRE 320 432 192 432
WIRE -320 448 -368 448
WIRE -224 448 -272 448
WIRE 736 496 736 432
WIRE 816 496 816 384
WIRE 816 496 736 496
WIRE -272 528 -272 496
WIRE -224 528 -224 448
WIRE -224 528 -272 528
WIRE -272 592 -272 528
WIRE -48 592 -48 432
WIRE -48 592 -272 592
WIRE 0 592 0 480
WIRE 0 592 -48 592
WIRE 192 592 192 480
WIRE 192 592 0 592
WIRE 240 592 192 592
WIRE 320 592 320 432
WIRE 320 592 240 592
WIRE 736 592 736 496
WIRE 736 592 320 592
FLAG 272 176 VINP
FLAG -16 176 VINN
FLAG 256 -128 VDD
FLAG 240 592 0
FLAG 128 176 VDD
FLAG 1568 288 VOUT
FLAG -368 528 0
FLAG 1168 176 VDD
FLAG 1376 176 VDD
FLAG 1376 224 VDD
FLAG 1168 224 VDD
FLAG 1168 336 0
FLAG 1168 384 0
FLAG 1376 336 0
FLAG 1376 384 0
SYMBOL nmos_035 48 384 M0
SYMATTR InstName M2
SYMATTR Value2 l=0.35u w=5u
SYMATTR SpiceLine ""
SYMBOL nmos_035 -320 400 R0
SYMATTR InstName M3
SYMATTR Value2 l=0.35u w=12u
SYMATTR SpiceLine ""
SYMBOL nmos_035 144 384 R0
SYMATTR InstName M5
SYMATTR Value2 l=0.35u w=5u
SYMATTR SpiceLine ""
SYMBOL pmos_035 272 128 M0
SYMATTR InstName M6
SYMATTR Value2 l=0.35u w=20u
SYMATTR SpiceLine ""
SYMBOL pmos_035 -16 128 R0
SYMATTR InstName M7
SYMATTR Value2 l=0.35u w=20u
SYMATTR SpiceLine ""
SYMBOL nmos_035 688 336 R0
SYMATTR InstName M10
SYMATTR Value2 l=0.35u w=100u
SYMATTR SpiceLine ""
SYMBOL pmos_035 -208 -96 M0
SYMATTR InstName M1
SYMATTR Value2 l=0.35u w=20u
SYMATTR SpiceLine ""
SYMBOL pmos_035 32 -96 R0
SYMATTR InstName M12
SYMATTR Value2 l=0.35u w=20u
SYMATTR SpiceLine ""
SYMBOL pmos_035 384 -112 R0
SYMATTR InstName M13
SYMATTR Value2 l=0.35u w=20u
SYMATTR SpiceLine ""
SYMBOL pmos_035 512 -112 R0
SYMATTR InstName M14
SYMATTR Value2 l=0.35u w=20u
SYMATTR SpiceLine ""
SYMBOL pmos_035 640 -112 R0
SYMATTR InstName M15
SYMATTR Value2 l=0.35u w=20u
SYMATTR SpiceLine ""
SYMBOL pmos_035 752 -112 R0
SYMATTR InstName M16
SYMATTR Value2 l=0.35u w=20u
SYMATTR SpiceLine ""
SYMBOL pmos_035 880 -112 R0
SYMATTR InstName M17
SYMATTR Value2 l=0.35u w=20u
SYMATTR SpiceLine ""
SYMBOL pmos_035 1120 176 R0
SYMATTR InstName M4
SYMATTR Value2 l=0.35u w=20u
SYMATTR SpiceLine ""
SYMBOL nmos_035 1120 288 R0
SYMATTR InstName M8
SYMATTR Value2 l=0.35u w=5u
SYMATTR SpiceLine ""
SYMBOL pmos_035 1328 176 R0
SYMATTR InstName M9
SYMATTR Value2 l=0.35u w=20u
SYMATTR SpiceLine ""
SYMBOL nmos_035 1328 288 R0
SYMATTR InstName M11
SYMATTR Value2 l=0.35u w=5u
SYMATTR SpiceLine ""
SYMBOL voltage -368 432 R0
WINDOW 123 0 0 Left 0
WINDOW 39 0 0 Left 0
SYMATTR InstName V1
SYMATTR Value 0.5
TEXT -576 120 Left 2 !.lib cmos_035.lib
