Version 4
SHEET 1 1768 680
WIRE 416 -64 144 -64
WIRE 1152 112 944 112
WIRE 1248 112 1152 112
WIRE 1152 144 1152 112
WIRE 1248 144 1152 144
WIRE 1728 160 1472 160
WIRE 1152 176 1152 144
WIRE 1248 176 1152 176
WIRE 144 192 144 -64
WIRE 1712 192 1472 192
WIRE 944 208 944 112
WIRE 1152 208 1152 176
WIRE 1248 208 1152 208
WIRE 1152 240 1152 208
WIRE 1248 240 1152 240
WIRE 496 272 240 272
WIRE 624 272 496 272
WIRE 1248 272 1088 272
WIRE 1536 272 1472 272
WIRE 1728 272 1568 272
WIRE 1728 288 1728 272
WIRE 1728 288 1712 288
WIRE -112 304 -256 304
WIRE -64 304 -112 304
WIRE 1152 304 1152 240
WIRE 1248 304 1152 304
WIRE 1568 304 1568 272
WIRE 1568 304 1472 304
WIRE -64 336 -64 304
WIRE 64 336 -64 336
WIRE 1248 336 1200 336
WIRE 1552 336 1472 336
WIRE 1088 352 1088 272
WIRE 1152 352 1152 304
WIRE 1200 352 1200 336
WIRE 1200 352 1152 352
WIRE 64 384 -112 384
WIRE -160 448 -256 448
WIRE -112 448 -112 384
WIRE -112 448 -160 448
FLAG -256 48 0
FLAG -256 224 0
FLAG -256 384 0
FLAG -256 528 0
FLAG 64 240 D
FLAG -256 -32 D
FLAG 64 288 CLK
FLAG -256 144 CLK
FLAG 416 16 0
FLAG -112 304 SET
FLAG -160 448 RESET
FLAG 496 272 output
FLAG 1088 432 0
FLAG 944 208 0
FLAG 1552 416 0
FLAG 1712 368 0
SYMBOL D_FlipFlop 144 336 R0
SYMATTR InstName X1
SYMBOL voltage -256 -48 R0
WINDOW 123 0 0 Left 0
WINDOW 39 0 0 Left 0
SYMATTR InstName V1
SYMATTR Value PULSE(0 2 50us 0.01us 0.01us 50us 100us 5)
SYMBOL voltage -256 128 R0
WINDOW 123 0 0 Left 0
WINDOW 39 0 0 Left 0
SYMATTR InstName V2
SYMATTR Value PULSE(0 2 3u 0.01us 0.01us 10us 20us 50)
SYMBOL voltage -256 288 R0
WINDOW 123 0 0 Left 0
WINDOW 39 0 0 Left 0
SYMATTR InstName V3
SYMATTR Value PULSE(0 2 0 0.01us 0.01us 35us 60us 5)
SYMBOL voltage -256 432 R0
WINDOW 123 0 0 Left 0
WINDOW 39 0 0 Left 0
SYMATTR InstName V4
SYMATTR Value PULSE(0 2 0 0.01us 0.01us 15us 50us 5)
SYMBOL voltage 416 -80 R0
WINDOW 123 0 0 Left 0
WINDOW 39 0 0 Left 0
SYMATTR InstName V5
SYMATTR Value 2
SYMBOL R2R 1344 160 R0
SYMATTR InstName X2
SYMBOL voltage 1088 336 R0
WINDOW 123 0 0 Left 0
WINDOW 39 0 0 Left 0
SYMATTR InstName V6
SYMATTR Value 1
SYMBOL voltage 1552 320 R0
WINDOW 123 0 0 Left 0
WINDOW 39 0 0 Left 0
SYMATTR InstName V7
SYMATTR Value 1
SYMBOL voltage 1712 272 R0
WINDOW 123 0 0 Left 0
WINDOW 39 0 0 Left 0
SYMATTR InstName V8
SYMATTR Value 2
TEXT 16 64 Left 2 !.lib cmos_035.lib
TEXT 648 112 Left 2 !.tran 200us
