Version 4
SHEET 1 1060 864
WIRE 352 -32 352 -144
WIRE 352 -32 240 -32
WIRE 480 -32 352 -32
WIRE 240 48 240 -32
WIRE 480 48 480 -32
WIRE 192 96 96 96
WIRE 240 96 240 64
WIRE 480 96 480 64
WIRE 640 96 528 96
WIRE 96 224 96 96
WIRE 96 224 0 224
WIRE 240 224 240 144
WIRE 352 224 240 224
WIRE 480 224 480 144
WIRE 480 224 352 224
WIRE 640 224 640 96
WIRE 896 224 640 224
WIRE 352 272 352 224
WIRE 800 272 352 272
WIRE 352 320 352 272
WIRE 96 368 96 224
WIRE 304 368 96 368
WIRE 352 512 352 416
WIRE 640 560 640 224
WIRE 640 560 400 560
WIRE 352 592 352 560
WIRE 352 672 352 608
FLAG 352 672 0
FLAG 352 -144 VDD
IOPIN 352 -144 In
FLAG 352 368 0
FLAG 0 224 INPUT_A
IOPIN 0 224 In
FLAG 896 224 INPUT_B
IOPIN 896 224 In
FLAG 800 272 OUT
IOPIN 800 272 Out
SYMBOL pmos_035 192 48 R0
SYMATTR InstName M1
SYMBOL nmos_035 304 320 R0
SYMATTR InstName M3
SYMBOL nmos_035 400 512 M0
SYMATTR InstName M4
SYMBOL pmos_035 528 48 M0
SYMATTR InstName M2
TEXT -256 848 Left 2 !.lib cmos_035.lib
