Version 4
SHEET 1 880 680
WIRE 272 64 208 64
WIRE 208 176 208 64
FLAG 208 256 0
FLAG 272 144 0
SYMBOL rpn_035 192 160 R0
SYMATTR InstName U1
SYMATTR SpiceLine2 L=13u
SYMBOL voltage 272 48 R0
WINDOW 123 0 0 Left 0
WINDOW 39 0 0 Left 0
SYMATTR InstName V1
SYMATTR Value 16
TEXT -48 80 Left 2 !.lib cmos_035.lib
TEXT -50 280 Left 2 !.tran 50us
